Circuit: * C:\Users\Sam\Documents\ANUWork\ENGN2218\ENGN2218-PreLabs\LAB01\HLab01_BJT_xtics_C.asc

Warning: Multiple definitions of model "2scr375p" Type: BJT
Warning: Multiple definitions of model "bc857b" Type: BJT
Warning: Multiple definitions of model "bc847c" Type: BJT
Warning: Multiple definitions of model "bc847b" Type: BJT
.OP point found by inspection.
.step ib=0
.step ib=0.00025
.step ib=0.0005
.step ib=0.00075
.step ib=0.001
.step ib=0.00125
.step ib=0.0015
.step ib=0.00175
.step ib=0.002
.step ib=0.00225
.step ib=0.0025

Date: Tue Feb 28 23:19:55 2023
Total elapsed time: 0.450 seconds.

tnom = 27
temp = 27
method = trap
totiter = 2413
traniter = 0
tranpoints = 0
accept = 0
rejected = 0
matrix size = 6
fillins = 0
solver = Normal
Matrix Compiler1: 360 bytes object code size  0.4/0.2/[0.2]
Matrix Compiler2: 462 bytes object code size  0.1/0.3/[0.1]

