Circuit: * C:\Users\Sam\Documents\ANUWork\ENGN2218\ENGN2218-PreLabs\LAB01\HLab01_BJT_xtics_A.asc

Warning: Multiple definitions of model "2scr375p" Type: BJT
Warning: Multiple definitions of model "bc857b" Type: BJT
Warning: Multiple definitions of model "bc847c" Type: BJT
Warning: Multiple definitions of model "bc847b" Type: BJT

Date: Tue Feb 28 21:56:50 2023
Total elapsed time: 0.121 seconds.

tnom = 27
temp = 27
method = trap
totiter = 250
traniter = 0
tranpoints = 0
accept = 0
rejected = 0
matrix size = 6
fillins = 0
solver = Normal
Matrix Compiler1: 360 bytes object code size  0.2/0.1/[0.1]
Matrix Compiler2: 462 bytes object code size  0.1/0.1/[0.1]

