Circuit: * C:\Users\Sam\Documents\ANUWork\ENGN2218\ENGN2218-PreLabs\LAB01\HLab01_BJT_CE.asc

Warning: Multiple definitions of model "2scr375p" Type: BJT
Warning: Multiple definitions of model "bc857b" Type: BJT
Warning: Multiple definitions of model "bc847c" Type: BJT
Warning: Multiple definitions of model "bc847b" Type: BJT
Direct Newton iteration for .op point succeeded.

Date: Tue Feb 28 23:25:12 2023
Total elapsed time: 0.159 seconds.

tnom = 27
temp = 27
method = modified trap
totiter = 2625
traniter = 2621
tranpoints = 994
accept = 676
rejected = 318
matrix size = 12
fillins = 0
solver = Normal
Matrix Compiler1: 624 bytes object code size  0.6/0.4/[0.2]
Matrix Compiler2: 920 bytes object code size  0.2/0.4/[0.2]

